case_study/opendss_scripts/LVTestCase/di_idv_Curr_Elem.Txt

CIRCUIT ELEMENT CURRENTS

(Currents into element from indicated bus)

Power Delivery Elements

  Bus     Phase    Magnitude, A     Angle      (Real)   +j  (Imag)

ELEMENT = "Vsource.SOURCE"
SOURCEBUS     1          0.14926 /_  161.8 =   -0.14178 +j  0.046654
SOURCEBUS     2          0.14926 /_   41.8 =     0.1113 +j  0.099461
SOURCEBUS     3          0.14926 /_  -78.2 =   0.030488 +j  -0.14612
------------
SOURCEBUS     0          0.14926 /_  -18.2 =    0.14178 +j -0.046654
SOURCEBUS     0          0.14926 /_ -138.2 =    -0.1113 +j -0.099461
SOURCEBUS     0          0.14926 /_  101.8 =  -0.030488 +j   0.14612

ELEMENT = "Transformer.TR1"
SOURCEBUS     1          0.14926 /_  -18.2 =    0.14178 +j -0.046654
SOURCEBUS     2          0.14926 /_ -138.2 =    -0.1113 +j -0.099461
SOURCEBUS     3          0.14926 /_  101.8 =  -0.030488 +j   0.14612
SOURCEBUS     0                0 /_    0.0 =          0 +j         0
------------
1             1           4.1044 /_  131.8 =    -2.7357 +j    3.0598
1             2           4.1044 /_   11.8 =     4.0177 +j   0.83929
1             3           4.1044 /_ -108.2 =     -1.282 +j    -3.899
1             0      7.3766E-010 /_  -46.7 =  5.0568E-010 +j -5.3706E-010

ELEMENT = "Line.LINE1"
1             1           4.1044 /_  -48.2 =     2.7357 +j   -3.0598
1             2           4.1044 /_ -168.2 =    -4.0177 +j  -0.83929
1             3           4.1044 /_   71.8 =      1.282 +j     3.899
------------
2             1           4.1044 /_  131.8 =    -2.7357 +j    3.0598
2             2           4.1044 /_   11.8 =     4.0177 +j   0.83929
2             3           4.1044 /_ -108.2 =     -1.282 +j    -3.899

ELEMENT = "Line.LINE2"
2             1           2.5685 /_  -48.2 =      1.712 +j   -1.9147
2             2           2.5685 /_ -168.2 =    -2.5142 +j  -0.52524
2             3           2.5685 /_   71.8 =    0.80223 +j      2.44
------------
3             1           2.5685 /_  131.8 =     -1.712 +j    1.9147
3             2           2.5685 /_   11.8 =     2.5142 +j   0.52524
3             3           2.5685 /_ -108.2 =   -0.80223 +j     -2.44

ELEMENT = "Line.LINE3"
3             1           2.5685 /_  -48.2 =      1.712 +j   -1.9147
3             2           2.5685 /_ -168.2 =    -2.5142 +j  -0.52524
3             3           2.5685 /_   71.8 =    0.80223 +j      2.44
------------
10            1           2.5685 /_  131.8 =     -1.712 +j    1.9147
10            2           2.5685 /_   11.8 =     2.5142 +j   0.52524
10            3           2.5685 /_ -108.2 =   -0.80223 +j     -2.44

ELEMENT = "Line.LINE4"
10            1           2.0575 /_  -48.2 =     1.3714 +j   -1.5338
10            2           2.0575 /_ -168.2 =     -2.014 +j  -0.42075
10            3           2.0575 /_   71.8 =    0.64261 +j    1.9545
------------
11            1           2.0575 /_  131.8 =    -1.3714 +j    1.5338
11            2           2.0575 /_   11.8 =      2.014 +j   0.42075
11            3           2.0575 /_ -108.2 =   -0.64261 +j   -1.9545

ELEMENT = "Line.LINE5"
11            1            1.516 /_  -48.2 =     1.0105 +j   -1.1301
11            2            1.516 /_ -168.2 =     -1.484 +j  -0.31003
11            3            1.516 /_   71.8 =    0.47348 +j    1.4402
------------
12            1            1.516 /_  131.8 =    -1.0105 +j    1.1301
12            2            1.516 /_   11.8 =      1.484 +j   0.31003
12            3            1.516 /_ -108.2 =   -0.47348 +j   -1.4402

ELEMENT = "Line.LINE6"
12            1           1.3176 /_  -48.2 =    0.87827 +j  -0.98226
12            2           1.3176 /_ -168.2 =    -1.2898 +j  -0.26947
12            3           1.3176 /_   71.8 =    0.41153 +j    1.2517
------------
13            1           1.3176 /_  131.8 =   -0.87827 +j   0.98226
13            2           1.3176 /_   11.8 =     1.2898 +j   0.26947
13            3           1.3176 /_ -108.2 =   -0.41153 +j   -1.2517

ELEMENT = "Line.LINE7"
13            1          0.50244 /_  -48.2 =     0.3349 +j  -0.37455
13            2          0.50244 /_ -168.2 =   -0.49182 +j  -0.10275
13            3          0.50244 /_   71.8 =    0.15692 +j   0.47731
------------
14            1          0.50244 /_  131.8 =    -0.3349 +j   0.37455
14            2          0.50244 /_   11.8 =    0.49182 +j   0.10275
14            3          0.50244 /_ -108.2 =   -0.15692 +j  -0.47731

ELEMENT = "Line.LINE8"
10            1           0.1853 /_  -48.2 =     0.1235 +j  -0.13814
10            2           0.1853 /_ -168.2 =   -0.18138 +j -0.037888
10            3           0.1853 /_   71.8 =   0.057879 +j   0.17603
------------
100           1           0.1853 /_  131.8 =    -0.1235 +j   0.13814
100           2           0.1853 /_   11.8 =    0.18138 +j  0.037888
100           3           0.1853 /_ -108.2 =  -0.057879 +j  -0.17603

ELEMENT = "Line.LINE9"
11            1          0.20268 /_  -48.2 =    0.13509 +j   -0.1511
11            2          0.20268 /_ -168.2 =    -0.1984 +j -0.041446
11            3          0.20268 /_   71.8 =   0.063308 +j   0.19254
------------
110           1          0.20268 /_  131.8 =   -0.13509 +j    0.1511
110           2          0.20268 /_   11.8 =     0.1984 +j  0.041446
110           3          0.20268 /_ -108.2 =  -0.063308 +j  -0.19254

ELEMENT = "Line.LINE10"
12            1      1.0047E-007 /_  157.3 =  -9.2705E-008 +j 3.8741E-008
12            2      1.0047E-007 /_   37.3 =  7.9901E-008 +j 6.0914E-008
12            3      1.0047E-007 /_  -82.7 =  1.2801E-008 +j -9.9653E-008
------------
120           1      1.0047E-007 /_  -22.7 =  9.2705E-008 +j -3.8741E-008
120           2      1.0047E-007 /_ -142.7 =  -7.9901E-008 +j -6.0914E-008
120           3      1.0047E-007 /_   97.3 =  -1.2801E-008 +j 9.9653E-008

ELEMENT = "Line.LINE11"
13            1          0.68779 /_  -48.2 =    0.45844 +j  -0.51272
13            2          0.68779 /_ -168.2 =   -0.67325 +j  -0.14066
13            3          0.68779 /_   71.8 =    0.21481 +j   0.65338
------------
130           1          0.68779 /_  131.8 =   -0.45844 +j   0.51272
130           2          0.68779 /_   11.8 =    0.67325 +j   0.14066
130           3          0.68779 /_ -108.2 =   -0.21481 +j  -0.65338

ELEMENT = "Line.LINE12"
14            1         0.092667 /_  -48.2 =   0.061766 +j -0.069081
14            2         0.092667 /_ -168.2 =  -0.090709 +j -0.018951
14            3         0.092667 /_   71.8 =   0.028943 +j  0.088031
------------
140           1         0.092667 /_  131.8 =  -0.061766 +j  0.069081
140           2         0.092667 /_   11.8 =   0.090709 +j  0.018951
140           3         0.092667 /_ -108.2 =  -0.028943 +j -0.088031

ELEMENT = "Line.LINE13"
10            1          0.32572 /_  -48.2 =     0.2171 +j  -0.24282
10            2          0.32572 /_ -168.2 =   -0.31884 +j -0.066602
10            3          0.32572 /_   71.8 =    0.10174 +j   0.30942
------------
101           1          0.32572 /_  131.8 =    -0.2171 +j   0.24282
101           2          0.32572 /_   11.8 =    0.31884 +j  0.066602
101           3          0.32572 /_ -108.2 =   -0.10174 +j  -0.30942

ELEMENT = "Line.LINE14"
11            1          0.33878 /_  -48.2 =     0.2258 +j  -0.25255
11            2          0.33878 /_ -168.2 =   -0.33162 +j -0.069276
11            3          0.33878 /_   71.8 =    0.10582 +j   0.32183
------------
111           1          0.33878 /_  131.8 =    -0.2258 +j   0.25255
111           2          0.33878 /_   11.8 =    0.33162 +j  0.069276
111           3          0.33878 /_ -108.2 =   -0.10582 +j  -0.32183

ELEMENT = "Line.LINE15"
12            1          0.19835 /_  -48.2 =    0.13221 +j  -0.14787
12            2          0.19835 /_ -168.2 =   -0.19416 +j -0.040562
12            3          0.19835 /_   71.8 =   0.061953 +j   0.18843
------------
121           1          0.19835 /_  131.8 =   -0.13221 +j   0.14787
121           2          0.19835 /_   11.8 =    0.19416 +j  0.040562
121           3          0.19835 /_ -108.2 =  -0.061953 +j  -0.18843

ELEMENT = "Line.LINE16"
13            1          0.12742 /_  -48.2 =   0.084927 +j -0.094985
13            2          0.12742 /_ -168.2 =   -0.12472 +j -0.026056
13            3          0.12742 /_   71.8 =   0.039796 +j   0.12104
------------
131           1          0.12742 /_  131.8 =  -0.084927 +j  0.094985
131           2          0.12742 /_   11.8 =    0.12472 +j  0.026056
131           3          0.12742 /_ -108.2 =  -0.039796 +j  -0.12104

ELEMENT = "Line.LINE17"
14            1          0.40977 /_  -48.2 =    0.27313 +j  -0.30547
14            2          0.40977 /_ -168.2 =   -0.40111 +j -0.083802
14            3          0.40977 /_   71.8 =    0.12798 +j   0.38928
------------
141           1          0.40977 /_  131.8 =   -0.27313 +j   0.30547
141           2          0.40977 /_   11.8 =    0.40111 +j  0.083802
141           3          0.40977 /_ -108.2 =   -0.12798 +j  -0.38928

ELEMENT = "Line.LINE18"
2             1           1.5359 /_  -48.2 =     1.0237 +j    -1.145
2             2           1.5359 /_ -168.2 =    -1.5035 +j  -0.31405
2             3           1.5359 /_   71.8 =    0.47976 +j    1.4591
------------
4             1           1.5359 /_  131.8 =    -1.0237 +j     1.145
4             2           1.5359 /_   11.8 =     1.5035 +j   0.31405
4             3           1.5359 /_ -108.2 =   -0.47976 +j   -1.4591

ELEMENT = "Line.LINE19"
4             1           1.5359 /_  -48.2 =     1.0237 +j    -1.145
4             2           1.5359 /_ -168.2 =    -1.5035 +j  -0.31405
4             3           1.5359 /_   71.8 =    0.47976 +j    1.4591
------------
20            1           1.5359 /_  131.8 =    -1.0237 +j     1.145
20            2           1.5359 /_   11.8 =     1.5035 +j   0.31405
20            3           1.5359 /_ -108.2 =   -0.47976 +j   -1.4591

ELEMENT = "Line.LINE20"
20            1           1.3825 /_  -48.2 =    0.92144 +j   -1.0306
20            2           1.3825 /_ -168.2 =    -1.3533 +j  -0.28268
20            3           1.3825 /_   71.8 =    0.43183 +j    1.3133
------------
21            1           1.3825 /_  131.8 =   -0.92144 +j    1.0306
21            2           1.3825 /_   11.8 =     1.3533 +j   0.28268
21            3           1.3825 /_ -108.2 =   -0.43183 +j   -1.3133

ELEMENT = "Line.LINE21"
21            1           0.6717 /_  -48.2 =     0.4477 +j  -0.50075
21            2           0.6717 /_ -168.2 =   -0.65751 +j  -0.13734
21            3           0.6717 /_   71.8 =    0.20981 +j    0.6381
------------
22            1           0.6717 /_  131.8 =    -0.4477 +j   0.50075
22            2           0.6717 /_   11.8 =    0.65751 +j   0.13734
22            3           0.6717 /_ -108.2 =   -0.20981 +j   -0.6381

ELEMENT = "Line.LINE22"
22            1          0.56024 /_  -48.2 =    0.37341 +j  -0.41765
22            2          0.56024 /_ -168.2 =    -0.5484 +j  -0.11455
22            3          0.56024 /_   71.8 =      0.175 +j   0.53221
------------
23            1          0.56024 /_  131.8 =   -0.37341 +j   0.41765
23            2          0.56024 /_   11.8 =     0.5484 +j   0.11455
23            3          0.56024 /_ -108.2 =     -0.175 +j  -0.53221

ELEMENT = "Line.LINE23"
23            1          0.37929 /_  -48.2 =     0.2528 +j  -0.28275
23            2          0.37929 /_ -168.2 =   -0.37127 +j -0.077554
23            3          0.37929 /_   71.8 =    0.11847 +j   0.36031
------------
24            1          0.37929 /_  131.8 =    -0.2528 +j   0.28275
24            2          0.37929 /_   11.8 =    0.37127 +j  0.077554
24            3          0.37929 /_ -108.2 =   -0.11847 +j  -0.36031

ELEMENT = "Line.LINE24"
20            1      9.3348E-008 /_  155.7 =  -8.5068E-008 +j 3.8435E-008
20            2      9.3346E-008 /_   35.7 =  7.5817E-008 +j 5.4453E-008
20            3      9.3346E-008 /_  -84.3 =  9.2496E-009 +j -9.2887E-008
------------
200           1      9.3348E-008 /_  -24.3 =  8.5068E-008 +j -3.8435E-008
200           2      9.3346E-008 /_ -144.3 =  -7.5817E-008 +j -5.4453E-008
200           3      9.3346E-008 /_   95.7 =  -9.2496E-009 +j 9.2887E-008

ELEMENT = "Line.LINE25"
21            1          0.56312 /_  -48.2 =    0.37533 +j   -0.4198
21            2          0.56312 /_ -168.2 =   -0.55123 +j  -0.11514
21            3          0.56312 /_   71.8 =     0.1759 +j   0.53495
------------
210           1          0.56312 /_  131.8 =   -0.37533 +j    0.4198
210           2          0.56312 /_   11.8 =    0.55123 +j   0.11514
210           3          0.56312 /_ -108.2 =    -0.1759 +j  -0.53495

ELEMENT = "Line.LINE26"
22            1      1.2121E-007 /_  149.1 =  -1.0398E-007 +j 6.2296E-008
22            2      1.2122E-007 /_   29.1 =  1.0594E-007 +j 5.8906E-008
22            3      1.2122E-007 /_  -90.9 =  -1.9569E-009 +j -1.212E-007
------------
220           1      1.2121E-007 /_  -30.9 =  1.0398E-007 +j -6.2296E-008
220           2      1.2122E-007 /_ -150.9 =  -1.0594E-007 +j -5.8906E-008
220           3      1.2122E-007 /_   89.1 =  1.9569E-009 +j 1.212E-007

ELEMENT = "Line.LINE27"
23            1          0.18095 /_  -48.2 =    0.12061 +j   -0.1349
23            2          0.18095 /_ -168.2 =   -0.17713 +j    -0.037
23            3          0.18095 /_   71.8 =   0.056523 +j    0.1719
------------
230           1          0.18095 /_  131.8 =   -0.12061 +j    0.1349
230           2          0.18095 /_   11.8 =    0.17713 +j     0.037
230           3          0.18095 /_ -108.2 =  -0.056523 +j   -0.1719

ELEMENT = "Line.LINE28"
24            1           0.1549 /_  -48.2 =    0.10324 +j  -0.11548
24            2           0.1549 /_ -168.2 =   -0.15163 +j -0.031673
24            3           0.1549 /_   71.8 =   0.048384 +j   0.14715
------------
240           1           0.1549 /_  131.8 =   -0.10324 +j   0.11548
240           2           0.1549 /_   11.8 =    0.15163 +j  0.031673
240           3           0.1549 /_ -108.2 =  -0.048384 +j  -0.14715

ELEMENT = "Line.LINE29"
20            1          0.15343 /_  -48.2 =    0.10226 +j  -0.11439
20            2          0.15343 /_ -168.2 =   -0.15019 +j  -0.03137
20            3          0.15343 /_   71.8 =   0.047929 +j   0.14576
------------
201           1          0.15343 /_  131.8 =   -0.10226 +j   0.11439
201           2          0.15343 /_   11.8 =    0.15019 +j   0.03137
201           3          0.15343 /_ -108.2 =  -0.047929 +j  -0.14576

ELEMENT = "Line.LINE30"
21            1          0.14765 /_  -48.2 =    0.09841 +j  -0.11007
21            2          0.14765 /_ -168.2 =   -0.14453 +j -0.030189
21            3          0.14765 /_   71.8 =   0.046121 +j   0.14026
------------
211           1          0.14765 /_  131.8 =   -0.09841 +j   0.11007
211           2          0.14765 /_   11.8 =    0.14453 +j  0.030189
211           3          0.14765 /_ -108.2 =  -0.046121 +j  -0.14026

ELEMENT = "Line.LINE31"
22            1          0.11146 /_  -48.2 =   0.074292 +j -0.083096
22            2          0.11146 /_ -168.2 =   -0.10911 +j -0.022791
22            3          0.11146 /_   71.8 =   0.034818 +j   0.10589
------------
221           1          0.11146 /_  131.8 =  -0.074292 +j  0.083096
221           2          0.11146 /_   11.8 =    0.10911 +j  0.022791
221           3          0.11146 /_ -108.2 =  -0.034818 +j  -0.10589

ELEMENT = "Line.LINE32"
23            1      1.2913E-007 /_  147.8 =  -1.0928E-007 +j 6.8801E-008
23            2      1.2913E-007 /_   27.8 =  1.1422E-007 +j 6.0234E-008
23            3      1.2913E-007 /_  -92.2 =  -4.9452E-009 +j -1.2903E-007
------------
231           1      1.2913E-007 /_  -32.2 =  1.0928E-007 +j -6.8801E-008
231           2      1.2913E-007 /_ -152.2 =  -1.1422E-007 +j -6.0234E-008
231           3      1.2913E-007 /_   87.8 =  4.9452E-009 +j 1.2903E-007

ELEMENT = "Line.LINE33"
24            1          0.22439 /_  -48.2 =    0.14956 +j  -0.16728
24            2          0.22439 /_ -168.2 =   -0.21965 +j -0.045881
24            3          0.22439 /_   71.8 =   0.070089 +j   0.21316
------------
241           1          0.22439 /_  131.8 =   -0.14956 +j   0.16728
241           2          0.22439 /_   11.8 =    0.21965 +j  0.045881
241           3          0.22439 /_ -108.2 =  -0.070089 +j  -0.21316

= = = = = = = = = = = = = = = = = = =  = = = = = = = = = = =  = =

Power Conversion Elements

  Bus     Phase    Magnitude, A     Angle      (Real)   +j  (Imag)

ELEMENT = "Load.LOAD1"
100           1           0.1853 /_  -48.2 =     0.1235 +j  -0.13814
100           2           0.1853 /_ -168.2 =   -0.18138 +j -0.037888
100           3           0.1853 /_   71.8 =   0.057879 +j   0.17603
100           0      3.6178E-011 /_  131.8 =  -2.4111E-011 +j 2.6972E-011

ELEMENT = "Load.LOAD2"
110           1          0.20269 /_  -48.2 =    0.13509 +j   -0.1511
110           2          0.20269 /_ -168.2 =    -0.1984 +j -0.041446
110           3          0.20269 /_   71.8 =   0.063308 +j   0.19254
110           0      3.9576E-011 /_  131.8 =  -2.6376E-011 +j 2.9505E-011

ELEMENT = "Load.LOAD3"
120           1                0 /_    0.0 =          0 +j         0
120           2                0 /_    0.0 =          0 +j         0
120           3                0 /_    0.0 =          0 +j         0
120           0                0 /_    0.0 =          0 +j         0

ELEMENT = "Load.LOAD4"
130           1          0.68779 /_  -48.2 =    0.45844 +j  -0.51272
130           2          0.68779 /_ -168.2 =   -0.67325 +j  -0.14066
130           3          0.68779 /_   71.8 =    0.21481 +j   0.65338
130           0      1.3432E-010 /_  131.8 =  -8.9525E-011 +j 1.0013E-010

ELEMENT = "Load.LOAD5"
140           1         0.092667 /_  -48.2 =   0.061766 +j -0.069081
140           2         0.092667 /_ -168.2 =  -0.090709 +j -0.018951
140           3         0.092667 /_   71.8 =   0.028943 +j  0.088031
140           0      1.8096E-011 /_  131.8 =  -1.2061E-011 +j 1.3491E-011

ELEMENT = "Load.LOAD6"
101           1          0.32572 /_  -48.2 =     0.2171 +j  -0.24282
101           2          0.32572 /_ -168.2 =   -0.31884 +j -0.066602
101           3          0.32572 /_   71.8 =    0.10174 +j   0.30942
101           0      6.3595E-011 /_  131.8 =  -4.2383E-011 +j 4.7413E-011

ELEMENT = "Load.LOAD7"
111           1          0.33878 /_  -48.2 =     0.2258 +j  -0.25255
111           2          0.33878 /_ -168.2 =   -0.33162 +j -0.069276
111           3          0.33878 /_   71.8 =    0.10582 +j   0.32183
111           0       6.615E-011 /_  131.8 =  -4.4087E-011 +j 4.9316E-011

ELEMENT = "Load.LOAD8"
121           1          0.19835 /_  -48.2 =    0.13221 +j  -0.14787
121           2          0.19835 /_ -168.2 =   -0.19416 +j -0.040562
121           3          0.19835 /_   71.8 =   0.061953 +j   0.18843
121           0      3.8732E-011 /_  131.8 =  -2.5815E-011 +j 2.8875E-011

ELEMENT = "Load.LOAD9"
131           1          0.12742 /_  -48.2 =   0.084927 +j -0.094985
131           2          0.12742 /_ -168.2 =   -0.12472 +j -0.026056
131           3          0.12742 /_   71.8 =   0.039796 +j   0.12104
131           0      2.4881E-011 /_  131.8 =  -1.6584E-011 +j 1.8549E-011

ELEMENT = "Load.LOAD10"
141           1          0.40977 /_  -48.2 =    0.27313 +j  -0.30547
141           2          0.40977 /_ -168.2 =   -0.40111 +j -0.083802
141           3          0.40977 /_   71.8 =    0.12798 +j   0.38928
141           0      8.0023E-011 /_  131.8 =  -5.3337E-011 +j 5.9657E-011

ELEMENT = "Load.LOAD11"
200           1                0 /_    0.0 =          0 +j         0
200           2                0 /_    0.0 =          0 +j         0
200           3                0 /_    0.0 =          0 +j         0
200           0                0 /_    0.0 =          0 +j         0

ELEMENT = "Load.LOAD12"
210           1          0.56312 /_  -48.2 =    0.37533 +j   -0.4198
210           2          0.56312 /_ -168.2 =   -0.55123 +j  -0.11514
210           3          0.56312 /_   71.8 =     0.1759 +j   0.53495
210           0      1.0994E-010 /_  131.8 =  -7.3273E-011 +j 8.1967E-011

ELEMENT = "Load.LOAD13"
220           1                0 /_    0.0 =          0 +j         0
220           2                0 /_    0.0 =          0 +j         0
220           3                0 /_    0.0 =          0 +j         0
220           0                0 /_    0.0 =          0 +j         0

ELEMENT = "Load.LOAD14"
230           1          0.18095 /_  -48.2 =    0.12061 +j   -0.1349
230           2          0.18095 /_ -168.2 =   -0.17713 +j    -0.037
230           3          0.18095 /_   71.8 =   0.056523 +j    0.1719
230           0      3.5329E-011 /_  131.8 =  -2.3546E-011 +j 2.6339E-011

ELEMENT = "Load.LOAD15"
240           1           0.1549 /_  -48.2 =    0.10324 +j  -0.11548
240           2           0.1549 /_ -168.2 =   -0.15163 +j -0.031673
240           3           0.1549 /_   71.8 =   0.048384 +j   0.14715
240           0      3.0243E-011 /_  131.8 =  -2.0156E-011 +j 2.2547E-011

ELEMENT = "Load.LOAD16"
201           1          0.15343 /_  -48.2 =    0.10226 +j  -0.11439
201           2          0.15343 /_ -168.2 =   -0.15019 +j  -0.03137
201           3          0.15343 /_   71.8 =   0.047929 +j   0.14576
201           0      2.9953E-011 /_  131.8 =  -1.9962E-011 +j 2.2332E-011

ELEMENT = "Load.LOAD17"
211           1          0.14765 /_  -48.2 =   0.098411 +j  -0.11007
211           2          0.14765 /_ -168.2 =   -0.14453 +j -0.030189
211           3          0.14765 /_   71.8 =   0.046121 +j   0.14026
211           0      2.8826E-011 /_  131.8 =  -1.9211E-011 +j 2.1491E-011

ELEMENT = "Load.LOAD18"
221           1          0.11146 /_  -48.2 =   0.074292 +j -0.083096
221           2          0.11146 /_ -168.2 =   -0.10911 +j -0.022791
221           3          0.11146 /_   71.8 =   0.034818 +j   0.10589
221           0      2.1762E-011 /_  131.8 =  -1.4503E-011 +j 1.6224E-011

ELEMENT = "Load.LOAD19"
231           1                0 /_    0.0 =          0 +j         0
231           2                0 /_    0.0 =          0 +j         0
231           3                0 /_    0.0 =          0 +j         0
231           0                0 /_    0.0 =          0 +j         0

ELEMENT = "Load.LOAD20"
241           1          0.22439 /_  -48.2 =    0.14956 +j  -0.16728
241           2          0.22439 /_ -168.2 =   -0.21965 +j -0.045882
241           3          0.22439 /_   71.8 =   0.070089 +j   0.21316
241           0       4.381E-011 /_  131.8 =  -2.9198E-011 +j 3.2662E-011

